 ReadVarsESO
 processing:/workspaces/tropos3/temp/simulations/1bdc4957-7819-4320-abcc-672fb2a1238b/eplusoutout.eso
 Requested ESO file=Program Version,EnergyPlus, Version 8.9.0-40101eaafd, YMD=2025.08.26 05:09
 does not exist.  ReadVarsESO program terminated.
 ReadVarsESO program terminated.
