Program Version,EnergyPlus, Version 8.9.0-40101eaafd, YMD=2025.08.26 04:20,
   ** Severe  ** GetEPWHeader:LOCATION, invalid numeric=DESIGN CONDITIONS
   ** Severe  ** GetEPWHeader:LOCATION, invalid numeric=CLIMATE DESIGN DATA 2009 ASHRAE HANDBOOK
   ** Severe  ** GetEPWHeader:LOCATION, invalid numeric=TYPICAL/EXTREME PERIODS
   **  Fatal  ** OpenWeatherFile: Unexpected End-of-File on EPW Weather file, while reading header information, looking for header=DESIGN CONDITIONS
   ...Summary of Errors that led to program termination:
   ..... Reference severe error count=3
   ..... Last severe error=GetEPWHeader:LOCATION, invalid numeric=TYPICAL/EXTREME PERIODS
   ************* Warning:  Node connection errors not checked - most system input has not been read (see previous warning).
   ************* Fatal error -- final processing.  Program exited before simulations began.  See previous error messages.
   ************* EnergyPlus Warmup Error Summary. During Warmup: 0 Warning; 0 Severe Errors.
   ************* EnergyPlus Sizing Error Summary. During Sizing: 0 Warning; 0 Severe Errors.
   ************* EnergyPlus Terminated--Fatal Error Detected. 0 Warning; 3 Severe Errors; Elapsed Time=00hr 00min  0.18sec
