Program Version,EnergyPlus, Version 8.9.0-40101eaafd, YMD=2025.08.26 04:24
