 ReadVarsESO
 processing:eplusoutout.eso
 Requested ESO file=Program Version,EnergyPlus, Version 8.9.0-40101eaafd, YMD=2025.08.26 04:24
 does not exist.  ReadVarsESO program terminated.
 ReadVarsESO program terminated.
 ReadVarsESO
 Requested ESO file=eplusout.eso
 does not exist.  ReadVarsESO program terminated.
 ReadVarsESO program terminated.
