  0
SECTION
  2
ENTITIES
999
DXF created from EnergyPlus
999
Program Version,EnergyPlus, Version 8.9.0-40101eaafd, YMD=2025.08.26 05:04
999
Polygon Action,TRIANGULATE3DFACE
999
Color Scheme,Default
999
Text - True North
  0
TEXT
  8
1
  6
Continuous
 62
  3
 10
      -13.50000
 20
        1.00000
 30
        0.10000
 40
 .25
  1
True North
 41
 0.0
  7
MONOTXT
210
0.0
220
0.0
230
1.0
999
Text - Building Title
  0
TEXT
  8
1
  6
Continuous
 62
  3
 10
      -16.50000
 20
       -3.00000
 30
        0.10000
 40
 .4
  1
Building - Tropos3D Building
 41
 0.0
  7
MONOTXT
210
0.0
220
0.0
230
1.0
999
North Arrow Stem
  0
3DFACE
  8
1
 62
  3
 10
      -12.50000
 20
        1.00000
 30
        0.10000
 11
      -12.50000
 21
        1.00000
 31
        0.00000
 12
      -12.50000
 22
       -2.00000
 32
        0.00000
 13
      -12.50000
 23
       -2.00000
 33
        0.10000
999
North Arrow Head 1
  0
3DFACE
  8
1
 62
  3
 10
      -12.50000
 20
        1.00000
 30
        0.10000
 11
      -12.50000
 21
        1.00000
 31
        0.00000
 12
      -13.00000
 22
        0.13397
 32
        0.00000
 13
      -13.00000
 23
        0.13397
 33
        0.10000
999
North Arrow Head 2
  0
3DFACE
  8
1
 62
  3
 10
      -12.50000
 20
        1.00000
 30
        0.10000
 11
      -12.50000
 21
        1.00000
 31
        0.00000
 12
      -12.00000
 22
        0.13397
 32
        0.00000
 13
      -12.00000
 23
        0.13397
 33
        0.10000
999
North Arrow Side 1
  0
3DFACE
  8
1
 62
  3
 10
      -13.00000
 20
        2.50000
 30
        0.10000
 11
      -13.00000
 21
        2.50000
 31
        0.00000
 12
      -13.00000
 22
        1.50000
 32
        0.00000
 13
      -13.00000
 23
        1.50000
 33
        0.10000
999
North Arrow Side 2
  0
3DFACE
  8
1
 62
  3
 10
      -13.00000
 20
        2.50000
 30
        0.10000
 11
      -13.00000
 21
        2.50000
 31
        0.00000
 12
      -12.00000
 22
        1.50000
 32
        0.00000
 13
      -12.00000
 23
        1.50000
 33
        0.10000
999
North Arrow Side 3
  0
3DFACE
  8
1
 62
  3
 10
      -12.00000
 20
        2.50000
 30
        0.10000
 11
      -12.00000
 21
        2.50000
 31
        0.00000
 12
      -12.00000
 22
        1.50000
 32
        0.00000
 13
      -12.00000
 23
        1.50000
 33
        0.10000
999
Zone Names
999
Zone=1:ZONE_DEFAULT
999
ZONE DEFAULT:WALL SOUTH
  0
3DFACE
  8
ZONE_DEFAULT
 62
 43
 10
       -2.50000
 20
        2.00000
 30
        2.50000
 11
       -2.50000
 21
        2.00000
 31
        0.00000
 12
        2.50000
 22
        2.00000
 32
        0.00000
 13
        2.50000
 23
        2.00000
 33
        2.50000
999
ZONE DEFAULT:WINDOW SOUTH
  0
3DFACE
  8
ZONE_DEFAULT
 62
143
 10
       -0.75000
 20
        2.00000
 30
        2.10000
 11
       -0.75000
 21
        2.00000
 31
        1.00000
 12
        0.75000
 22
        2.00000
 32
        1.00000
 13
        0.75000
 23
        2.00000
 33
        2.10000
999
ZONE DEFAULT:WALL NORTH
  0
3DFACE
  8
ZONE_DEFAULT
 62
 43
 10
        2.50000
 20
       -2.00000
 30
        2.50000
 11
        2.50000
 21
       -2.00000
 31
        0.00000
 12
       -2.50000
 22
       -2.00000
 32
        0.00000
 13
       -2.50000
 23
       -2.00000
 33
        2.50000
999
ZONE DEFAULT:WINDOW NORTH
  0
3DFACE
  8
ZONE_DEFAULT
 62
143
 10
        0.75000
 20
       -2.00000
 30
        2.10000
 11
        0.75000
 21
       -2.00000
 31
        1.00000
 12
       -0.75000
 22
       -2.00000
 32
        1.00000
 13
       -0.75000
 23
       -2.00000
 33
        2.10000
999
ZONE DEFAULT:WALL EAST
  0
3DFACE
  8
ZONE_DEFAULT
 62
 43
 10
        2.50000
 20
       -2.00000
 30
        2.50000
 11
        2.50000
 21
       -2.00000
 31
        0.00000
 12
        2.50000
 22
        2.00000
 32
        0.00000
 13
        2.50000
 23
        2.00000
 33
        2.50000
999
ZONE DEFAULT:WINDOW EAST
  0
3DFACE
  8
ZONE_DEFAULT
 62
143
 10
        2.50000
 20
       -0.75000
 30
        2.10000
 11
        2.50000
 21
       -0.75000
 31
        1.00000
 12
        2.50000
 22
        0.75000
 32
        1.00000
 13
        2.50000
 23
        0.75000
 33
        2.10000
999
ZONE DEFAULT:WALL WEST
  0
3DFACE
  8
ZONE_DEFAULT
 62
 43
 10
       -2.50000
 20
        2.00000
 30
        2.50000
 11
       -2.50000
 21
        2.00000
 31
        0.00000
 12
       -2.50000
 22
       -2.00000
 32
        0.00000
 13
       -2.50000
 23
       -2.00000
 33
        2.50000
999
ZONE DEFAULT:WINDOW WEST
  0
3DFACE
  8
ZONE_DEFAULT
 62
143
 10
       -2.50000
 20
        0.75000
 30
        2.10000
 11
       -2.50000
 21
        0.75000
 31
        1.00000
 12
       -2.50000
 22
       -0.75000
 32
        1.00000
 13
       -2.50000
 23
       -0.75000
 33
        2.10000
999
ZONE DEFAULT:GROUNDFLOOR
  0
3DFACE
  8
ZONE_DEFAULT
 62
  8
 10
        2.50000
 20
       -2.00000
 30
        0.00000
 11
       -2.50000
 21
       -2.00000
 31
        0.00000
 12
       -2.50000
 22
        2.00000
 32
        0.00000
 13
        2.50000
 23
        2.00000
 33
        0.00000
999
ZONE DEFAULT:ROOF
  0
3DFACE
  8
ZONE_DEFAULT
 62
 15
 10
       -2.50000
 20
       -2.00000
 30
        2.50000
 11
        2.50000
 21
       -2.00000
 31
        2.50000
 12
        2.50000
 22
        2.00000
 32
        2.50000
 13
       -2.50000
 23
        2.00000
 33
        2.50000
  0
ENDSEC
  0
EOF
