Program Version,EnergyPlus, Version 8.9.0-40101eaafd, YMD=2025.08.26 13:58,
   ** Warning ** SetUpDesignDay: Entered DesignDay Barometric Pressure=101217 differs by more than 10% from Standard Barometric Pressure=89212.
   **   ~~~   ** ...occurs in DesignDay=SUMMER DESIGN DAY, Standard Pressure (based on elevation) will be used.
   ************* Note that the following warning(s) may/will occur if you have not enclosed your zone completely.
   ** Warning ** Entered Zone Volumes differ from calculated zone volume(s).
   **   ~~~   ** ...use Output:Diagnostics,DisplayExtraWarnings; to show more details on individual zones.
   ** Warning ** SetUpDesignDay: Entered DesignDay Barometric Pressure=101217 differs by more than 10% from Standard Barometric Pressure=89212.
   **   ~~~   ** ...occurs in DesignDay=WINTER DESIGN DAY, Standard Pressure (based on elevation) will be used.
   ************* Testing Individual Branch Integrity
   ************* All Branches passed integrity testing
   ************* Testing Individual Supply Air Path Integrity
   ************* All Supply Air Paths passed integrity testing
   ************* Testing Individual Return Air Path Integrity
   ************* All Return Air Paths passed integrity testing
   ************* No node connection errors were found.
   ************* Beginning Simulation
   ************* Simulation Error Summary *************
   ************* There are 2 unused schedules in input.
   ************* Use Output:Diagnostics,DisplayUnusedSchedules; to see them.
   ************* EnergyPlus Warmup Error Summary. During Warmup: 0 Warning; 0 Severe Errors.
   ************* EnergyPlus Sizing Error Summary. During Sizing: 0 Warning; 0 Severe Errors.
   ************* EnergyPlus Completed Successfully-- 3 Warning; 0 Severe Errors; Elapsed Time=00hr 00min  2.65sec
